! ----  This file was generated with Archsim v.4.0.2.34

  Version,8.5;

  RunPeriod,
    Case03,                 !- Name
    1,                       !- Begin Month
    1,                       !- Begin Day of Month
    12,                      !- End Month
    31,                      !- End Day of Month
    UseWeatherFile,          !- Day of Week for Start Day
    No,                      !- Use Weather File Holidays and Special Days
    No,                      !- Use Weather File Daylight Saving Period
    Yes,                     !- Apply Weekend Holiday Rule
    Yes,                     !- Use Weather File Rain Indicators
    Yes,                     !- Use Weather File Snow Indicators
    1;                       !- Number of Times Runperiod to be Repeated

  Site:Location,
    Zurich,                  !- Name
    47.37,                   !- Latitude {deg}
    8.5,                     !- Longitude {deg}
    1,                       !- Time Zone {hr}
    408;                     !- Elevation {m}
	
  RunPeriodControl:DaylightSavingTime,
    1 January,    !- Start Date
    31 December;  !- End Date

  Site:GroundTemperature:BuildingSurface,14,14,14,14,14,14,14,14,14,14,14,14;

  Site:GroundReflectance,0.2,0.2,0.2,0.2,0.2,0.2,0.2,0.2,0.2,0.2,0.2,0.2;

  Site:GroundReflectance:SnowModifier,
    1.0,                     !- Ground Reflected Solar Modifier
    1.0;                     !- Daylighting Ground Reflected Solar Modifier

  SimulationControl,
    No,                      !- Do Zone Sizing Calculation
    No,                      !- Do System Sizing Calculation
    No,                      !- Do Plant Sizing Calculation
    No,                      !- Run Simulation for Sizing Periods
    Yes;                     !- Run Simulation for Weather File Run Periods

  ConvergenceLimits,
    1,                       !- Minimum System Timestep {minutes}
    50;                      !- Maximum HVAC Iterations

  ScheduleTypeLimits,
    Any Number;              !- Name

  ScheduleTypeLimits,
    Fraction,                !- Name
    0.0,                     !- Lower Limit Value
    1.0,                     !- Upper Limit Value
    CONTINUOUS;              !- Numeric Type

  ScheduleTypeLimits,
    Temperature,             !- Name
    -60,                     !- Lower Limit Value
    200,                     !- Upper Limit Value
    CONTINUOUS;              !- Numeric Type

  ScheduleTypeLimits,
    Control Type,            !- Name
    0,                       !- Lower Limit Value
    4,                       !- Upper Limit Value
    DISCRETE;                !- Numeric Type

  ScheduleTypeLimits,
    On/Off,                  !- Name
    0,                       !- Lower Limit Value
    1,                       !- Upper Limit Value
    DISCRETE;                !- Numeric Type

  Schedule:Constant,On,On/Off,1;

  Schedule:Constant,Off,On/Off,0;

  GlobalGeometryRules,
    LowerLeftCorner,         !- Starting Vertex Position
    CounterClockWise,        !- Vertex Entry Direction
    Relative;                !- Coordinate System

! -------------------------ERL SENSORS--------------------------

  EnergyManagementSystem:Sensor,
    OutdoorTemp,             !- Name
    Environment,             !- Output:Variable or Output:Meter Index Key Name
    Site Outdoor Air Drybulb Temperature;  !- Output:Variable or Output:Meter Name

  EnergyManagementSystem:Sensor,
    OutdoorRelHumid,         !- Name
    Environment,             !- Output:Variable or Output:Meter Index Key Name
    Site Outdoor Air Relative Humidity;  !- Output:Variable or Output:Meter Name

  Output:EnergyManagementSystem,
    Verbose,                 !- Actuator Availability Dictionary Reporting
    Verbose,                 !- Internal Variable Availability Dictionary Reporting
    Verbose;                 !- EMS Runtime Language Debug Output Level

  ShadowCalculation,
    AverageOverDaysInFrequency,  !- Calculation Method
    20,                      !- Calculation Frequency
    15000,                   !- Maximum Figures in Shadow Overlap Calculations
    SutherlandHodgman,       !- Polygon Clipping Algorithm
    SimpleSkyDiffuseModeling;!- Sky Diffuse Modeling Algorithm

  Building,
    Building,                !- Name
    0,                       !- North Axis {deg}
    City,                 !- Terrain
    .04,                     !- Loads Convergence Tolerance Value
    .4,                      !- Temperature Convergence Tolerance Value {deltaC}
    FullExterior,            !- Solar Distribution
    25,                      !- Maximum Number of Warmup Days
    ;                        !- Minimum Number of Warmup Days

  HeatBalanceAlgorithm,ConductionTransferFunction,200,0.1,1000;

  Timestep,4;

  SurfaceConvectionAlgorithm:Inside,TARP;

  SurfaceConvectionAlgorithm:Outside,DOE-2;

! ------------ CONSTRUCTIONS
! defaultConstruction Type: Facade

  Construction,
    defaultConstruction,     !- Name
    defaultMat_0.25_defaultConstruction;  !- Outside Layer

  Construction,
    defaultConstruction_FLIPPED,  !- Name
    defaultMat_0.25_defaultConstruction;  !- Outside Layer

! Materials
!- Material: defaultMat Type: Concrete

  Material,
    defaultMat_0.25_defaultConstruction,  !- Name
    Rough,                   !- Roughness
    0.25,                    !- Thickness {m}
    2.3,                     !- Conductivity {W/m-K}
    2400,                    !- Density {kg/m3}
    840,                     !- Specific Heat {J/kg-K}
    0.9,                     !- Thermal Absorptance
    0.7,                     !- Solar Absorptance
    0.7;                     !- Visible Absorptance

! 200mmConcrete Type: InteriorFloor

  Construction,
    200mmConcrete,           !- Name
    General Concrete_0.2_200mmConcrete;  !- Outside Layer

  Construction,
    200mmConcrete_FLIPPED,   !- Name
    General Concrete_0.2_200mmConcrete;  !- Outside Layer

! Materials
!- Material: General Concrete Type: Concrete

  Material,
    General Concrete_0.2_200mmConcrete,  !- Name
    Rough,                   !- Roughness
    0.2,                     !- Thickness {m}
    2,                       !- Conductivity {W/m-K}
    2400,                    !- Density {kg/m3}
    950,                     !- Specific Heat {J/kg-K}
    0.9,                     !- Thermal Absorptance
    0.7,                     !- Solar Absorptance
    0.7;                     !- Visible Absorptance

! 12mmGypsum 78mmSolidWood 12mmGypsum Type: Partition

  Construction,
    12mmGypsum 78mmSolidWood 12mmGypsum,  !- Name
    GypsumFibreBoard_0.012_12mmGypsum 78mmSolidWood 12mmGypsum,  !- Outside Layer
    Cross Laminated Timber_0.78_12mmGypsum 78mmSolidWood 12mmGypsum,  !- Layer 2
    GypsumFibreBoard_0.012_12mmGypsum 78mmSolidWood 12mmGypsum;  !- Layer 3

  Construction,
    12mmGypsum 78mmSolidWood 12mmGypsum_FLIPPED,  !- Name
    GypsumFibreBoard_0.012_12mmGypsum 78mmSolidWood 12mmGypsum,  !- Outside Layer
    Cross Laminated Timber_0.78_12mmGypsum 78mmSolidWood 12mmGypsum,  !- Layer 2
    GypsumFibreBoard_0.012_12mmGypsum 78mmSolidWood 12mmGypsum;  !- Layer 3

! Materials
!- Material: GypsumFibreBoard Type: Boards

  Material,
    GypsumFibreBoard_0.012_12mmGypsum 78mmSolidWood 12mmGypsum,  !- Name
    Rough,                   !- Roughness
    0.012,                   !- Thickness {m}
    0.32,                    !- Conductivity {W/m-K}
    1000,                    !- Density {kg/m3}
    1100,                    !- Specific Heat {J/kg-K}
    0.9,                     !- Thermal Absorptance
    0.7,                     !- Solar Absorptance
    0.7;                     !- Visible Absorptance

!- Material: Cross Laminated Timber Type: Timber

  Material,
    Cross Laminated Timber_0.78_12mmGypsum 78mmSolidWood 12mmGypsum,  !- Name
    Rough,                   !- Roughness
    0.78,                    !- Thickness {m}
    0.13,                    !- Conductivity {W/m-K}
    500,                     !- Density {kg/m3}
    1600,                    !- Specific Heat {J/kg-K}
    0.9,                     !- Thermal Absorptance
    0.7,                     !- Solar Absorptance
    0.7;                     !- Visible Absorptance

! SIA2024-Wall Type: Facade

  Construction,
    SIA2024-Wall,            !- Name
    wall-plaster-L1_0.03_SIA2024-Wall,  !- Outside Layer
    wall-xps-L2_0.16_SIA2024-Wall,  !- Layer 2
    wall-concrete-L3_0.2_SIA2024-Wall,  !- Layer 3
    wall-plaster-L4_0.015_SIA2024-Wall;  !- Layer 4

  Construction,
    SIA2024-Wall_FLIPPED,    !- Name
    wall-plaster-L4_0.015_SIA2024-Wall,  !- Outside Layer
    wall-concrete-L3_0.2_SIA2024-Wall,  !- Layer 2
    wall-xps-L2_0.16_SIA2024-Wall,  !- Layer 3
    wall-plaster-L1_0.03_SIA2024-Wall;  !- Layer 4

! Materials
!- Material: wall-plaster-L1 Type: No Category

  Material,
    wall-plaster-L1_0.03_SIA2024-Wall,  !- Name
    Rough,                   !- Roughness
    0.03,                    !- Thickness {m}
    0.72,                    !- Conductivity {W/m-K}
    1860,                    !- Density {kg/m3}
    840,                     !- Specific Heat {J/kg-K}
    0.9,                     !- Thermal Absorptance
    0.6,                     !- Solar Absorptance
    0.6;                     !- Visible Absorptance

!- Material: wall-xps-L2 Type: No Category

  Material,
    wall-xps-L2_0.16_SIA2024-Wall,  !- Name
    Rough,                   !- Roughness
    0.16,                    !- Thickness {m}
    0.034,                   !- Conductivity {W/m-K}
    35,                      !- Density {kg/m3}
    1400,                    !- Specific Heat {J/kg-K}
    0.9,                     !- Thermal Absorptance
    0.6,                     !- Solar Absorptance
    0.6;                     !- Visible Absorptance

!- Material: wall-concrete-L3 Type: No Category

  Material,
    wall-concrete-L3_0.2_SIA2024-Wall,  !- Name
    Rough,                   !- Roughness
    0.2,                     !- Thickness {m}
    2.3,                     !- Conductivity {W/m-K}
    2400,                    !- Density {kg/m3}
    840,                     !- Specific Heat {J/kg-K}
    0.9,                     !- Thermal Absorptance
    0.7,                     !- Solar Absorptance
    0.7;                     !- Visible Absorptance

!- Material: wall-plaster-L4 Type: No Category

  Material,
    wall-plaster-L4_0.015_SIA2024-Wall,  !- Name
    Rough,                   !- Roughness
    0.015,                   !- Thickness {m}
    0.58,                    !- Conductivity {W/m-K}
    800,                     !- Density {kg/m3}
    1090,                    !- Specific Heat {J/kg-K}
    0.9,                     !- Thermal Absorptance
    0.4,                     !- Solar Absorptance
    0.4;                     !- Visible Absorptance

! SIA2024-Roof Type: Facade

  Construction,
    SIA2024-Roof,            !- Name
    roof-plaster-L1_0.015_SIA2024-Roof,  !- Outside Layer
    roof-gravel-L2_0.2_SIA2024-Roof,  !- Layer 2
    roof-xps-L3_0.12_SIA2024-Roof,  !- Layer 3
    roof-builtup-L4_0.1_SIA2024-Roof;  !- Layer 4

  Construction,
    SIA2024-Roof_FLIPPED,    !- Name
    roof-builtup-L4_0.1_SIA2024-Roof,  !- Outside Layer
    roof-xps-L3_0.12_SIA2024-Roof,  !- Layer 2
    roof-gravel-L2_0.2_SIA2024-Roof,  !- Layer 3
    roof-plaster-L1_0.015_SIA2024-Roof;  !- Layer 4

! Materials
!- Material: roof-plaster-L1 Type: No Category

  Material,
    roof-plaster-L1_0.015_SIA2024-Roof,  !- Name
    Rough,                   !- Roughness
    0.015,                   !- Thickness {m}
    0.58,                    !- Conductivity {W/m-K}
    800,                     !- Density {kg/m3}
    1090,                    !- Specific Heat {J/kg-K}
    0.9,                     !- Thermal Absorptance
    0.4,                     !- Solar Absorptance
    0.4;                     !- Visible Absorptance

!- Material: roof-gravel-L2 Type: No Category

  Material,
    roof-gravel-L2_0.2_SIA2024-Roof,  !- Name
    Rough,                   !- Roughness
    0.2,                     !- Thickness {m}
    2.15,                    !- Conductivity {W/m-K}
    2400,                    !- Density {kg/m3}
    900,                     !- Specific Heat {J/kg-K}
    0.9,                     !- Thermal Absorptance
    0.6,                     !- Solar Absorptance
    0.6;                     !- Visible Absorptance

!- Material: roof-xps-L3 Type: No Category

  Material,
    roof-xps-L3_0.12_SIA2024-Roof,  !- Name
    Rough,                   !- Roughness
    0.12,                    !- Thickness {m}
    0.029,                   !- Conductivity {W/m-K}
    29,                      !- Density {kg/m3}
    1210,                    !- Specific Heat {J/kg-K}
    0.9,                     !- Thermal Absorptance
    0.5,                     !- Solar Absorptance
    0.5;                     !- Visible Absorptance

!- Material: roof-builtup-L4 Type: No Category

  Material,
    roof-builtup-L4_0.1_SIA2024-Roof,  !- Name
    Rough,                   !- Roughness
    0.1,                     !- Thickness {m}
    0.16,                    !- Conductivity {W/m-K}
    1120,                    !- Density {kg/m3}
    1460,                    !- Specific Heat {J/kg-K}
    0.9,                     !- Thermal Absorptance
    0.85,                    !- Solar Absorptance
    0.85;                    !- Visible Absorptance

! ------------ GLAZING

  Construction,
    DoublePaneLoEe2,         !- Name
    DoublePaneLoEe2Window;   !- Outside Layer

  WindowMaterial:SimpleGlazingSystem,
    DoublePaneLoEe2Window,   !- Name
    1.493,                   !- U-Factor {W/m2-K}
    0.373,                   !- Solar Heat Gain Coefficient
    0.444;                   !- Visible Transmittance

! ------------ SCHEDULES

  Schedule:Year,
    htgOffice,               !- Name
    Any Number,                !- Schedule Type Limits Name
    htgOffice,               !- Schedule:Week Name 1
    1,                       !- Start Month 1
    1,                       !- Start Day 1
    12,                      !- End Month 1
    31;                      !- End Day 1	
	
  Schedule:Year,
    clgOffice,               !- Name
    Any Number,                !- Schedule Type Limits Name
    clgOffice,               !- Schedule:Week Name 1
    1,                       !- Start Month 1
    1,                       !- Start Day 1
    12,                      !- End Month 1
    31;                      !- End Day 1	

  Schedule:Year,
    ventOffice,               !- Name
    Fraction,                !- Schedule Type Limits Name
    ventOffice,               !- Schedule:Week Name 1
    1,                       !- Start Month 1
    1,                       !- Start Day 1
    12,                      !- End Month 1
    31;                      !- End Day 1	
	
  Schedule:Year,
    occOffice,               !- Name
    Fraction,                !- Schedule Type Limits Name
    occOffice,               !- Schedule:Week Name 1
    1,                       !- Start Month 1
    1,                       !- Start Day 1
    12,                      !- End Month 1
    31;                      !- End Day 1

  Schedule:Year,
    lightsOffice,            !- Name
    Fraction,                !- Schedule Type Limits Name
    lightsOffice,            !- Schedule:Week Name 1
    1,                       !- Start Month 1
    1,                       !- Start Day 1
    12,                      !- End Month 1
    31;                      !- End Day 1

  Schedule:Year,
    equipOffice,             !- Name
    Fraction,                !- Schedule Type Limits Name
    equipOffice,             !- Schedule:Week Name 1
    1,                       !- Start Month 1
    1,                       !- Start Day 1
    12,                      !- End Month 1
    31;                      !- End Day 1

  Schedule:Year,
    dhwOffice,             !- Name
    Fraction,                !- Schedule Type Limits Name
    dhwOffice,             !- Schedule:Week Name 1
    1,                       !- Start Month 1
    1,                       !- Start Day 1
    12,                      !- End Month 1
    31;                      !- End Day 1	
	
  Schedule:Year,
    AllOn,                   !- Name
    Fraction,                !- Schedule Type Limits Name
    weekAllOn,               !- Schedule:Week Name 1
    1,                       !- Start Month 1
    1,                       !- Start Day 1
    12,                      !- End Month 1
    31;                      !- End Day 1

  Schedule:Week:Daily,
    ventOffice,               !- Name
    ventOfficeWeekEnd,        !- Sunday Schedule:Day Name
    ventOffice,               !- Monday Schedule:Day Name
    ventOffice,               !- Tuesday Schedule:Day Name
    ventOffice,               !- Wednesday Schedule:Day Name
    ventOffice,               !- Thursday Schedule:Day Name
    ventOffice,               !- Friday Schedule:Day Name
    ventOfficeWeekEnd,        !- Saturday Schedule:Day Name
    ventOfficeWeekEnd,        !- Holiday Schedule:Day Name
    ventOffice,               !- SummerDesignDay Schedule:Day Name
    ventOffice,               !- WinterDesignDay Schedule:Day Name
    ventOffice,               !- CustomDay1 Schedule:Day Name
    ventOffice;               !- CustomDay2 Schedule:Day Name	
	
  Schedule:Compact,
    actOffice,                 !- Name
    Any Number,              !- Schedule Type Limits Name
    Through: 12/31,          !- Field 1
    For: AllDays,            !- Field 2
    Until: 24:00,117.239997864; !- Field 3
	
  Schedule:Week:Daily,
    clgOffice,               !- Name
    clgOfficeWeekEnd,        !- Sunday Schedule:Day Name
    clgOffice,               !- Monday Schedule:Day Name
    clgOffice,               !- Tuesday Schedule:Day Name
    clgOffice,               !- Wednesday Schedule:Day Name
    clgOffice,               !- Thursday Schedule:Day Name
    clgOffice,               !- Friday Schedule:Day Name
    clgOfficeWeekEnd,        !- Saturday Schedule:Day Name
    clgOfficeWeekEnd,        !- Holiday Schedule:Day Name
    clgOffice,               !- SummerDesignDay Schedule:Day Name
    clgOffice,               !- WinterDesignDay Schedule:Day Name
    clgOffice,               !- CustomDay1 Schedule:Day Name
    clgOffice;               !- CustomDay2 Schedule:Day Name	

  Schedule:Week:Daily,
    htgOffice,               !- Name
    htgOfficeWeekEnd,        !- Sunday Schedule:Day Name
    htgOffice,               !- Monday Schedule:Day Name
    htgOffice,               !- Tuesday Schedule:Day Name
    htgOffice,               !- Wednesday Schedule:Day Name
    htgOffice,               !- Thursday Schedule:Day Name
    htgOffice,               !- Friday Schedule:Day Name
    htgOfficeWeekEnd,        !- Saturday Schedule:Day Name
    htgOfficeWeekEnd,        !- Holiday Schedule:Day Name
    htgOffice,               !- SummerDesignDay Schedule:Day Name
    htgOffice,               !- WinterDesignDay Schedule:Day Name
    htgOffice,               !- CustomDay1 Schedule:Day Name
    htgOffice;               !- CustomDay2 Schedule:Day Name	
	
  Schedule:Week:Daily,
    occOffice,               !- Name
    occOfficeWeekEnd,        !- Sunday Schedule:Day Name
    occOffice,               !- Monday Schedule:Day Name
    occOffice,               !- Tuesday Schedule:Day Name
    occOffice,               !- Wednesday Schedule:Day Name
    occOffice,               !- Thursday Schedule:Day Name
    occOffice,               !- Friday Schedule:Day Name
    occOfficeWeekEnd,        !- Saturday Schedule:Day Name
    occOfficeWeekEnd,        !- Holiday Schedule:Day Name
    occOffice,               !- SummerDesignDay Schedule:Day Name
    occOffice,               !- WinterDesignDay Schedule:Day Name
    occOffice,               !- CustomDay1 Schedule:Day Name
    occOffice;               !- CustomDay2 Schedule:Day Name

  Schedule:Week:Daily,
    lightsOffice,            !- Name
    lightsOfficeWeekEnd,     !- Sunday Schedule:Day Name
    lightsOffice,            !- Monday Schedule:Day Name
    lightsOffice,            !- Tuesday Schedule:Day Name
    lightsOffice,            !- Wednesday Schedule:Day Name
    lightsOffice,            !- Thursday Schedule:Day Name
    lightsOffice,            !- Friday Schedule:Day Name
    lightsOfficeWeekEnd,     !- Saturday Schedule:Day Name
    lightsOfficeWeekEnd,     !- Holiday Schedule:Day Name
    lightsOffice,            !- SummerDesignDay Schedule:Day Name
    lightsOffice,            !- WinterDesignDay Schedule:Day Name
    lightsOffice,            !- CustomDay1 Schedule:Day Name
    lightsOffice;            !- CustomDay2 Schedule:Day Name

  Schedule:Week:Daily,
    equipOffice,             !- Name
    equipOfficeWeekEnd,      !- Sunday Schedule:Day Name
    equipOffice,             !- Monday Schedule:Day Name
    equipOffice,             !- Tuesday Schedule:Day Name
    equipOffice,             !- Wednesday Schedule:Day Name
    equipOffice,             !- Thursday Schedule:Day Name
    equipOffice,             !- Friday Schedule:Day Name
    equipOfficeWeekEnd,      !- Saturday Schedule:Day Name
    equipOfficeWeekEnd,      !- Holiday Schedule:Day Name
    equipOffice,             !- SummerDesignDay Schedule:Day Name
    equipOffice,             !- WinterDesignDay Schedule:Day Name
    equipOffice,             !- CustomDay1 Schedule:Day Name
    equipOffice;             !- CustomDay2 Schedule:Day Name

  Schedule:Week:Daily,
    dhwOffice,             !- Name
    dhwOfficeWeekEnd,      !- Sunday Schedule:Day Name
    dhwOffice,             !- Monday Schedule:Day Name
    dhwOffice,             !- Tuesday Schedule:Day Name
    dhwOffice,             !- Wednesday Schedule:Day Name
    dhwOffice,             !- Thursday Schedule:Day Name
    dhwOffice,             !- Friday Schedule:Day Name
    dhwOfficeWeekEnd,      !- Saturday Schedule:Day Name
    dhwOfficeWeekEnd,      !- Holiday Schedule:Day Name
    dhwOffice,             !- SummerDesignDay Schedule:Day Name
    dhwOffice,             !- WinterDesignDay Schedule:Day Name
    dhwOffice,             !- CustomDay1 Schedule:Day Name
    dhwOffice;             !- CustomDay2 Schedule:Day Name	
	
  Schedule:Week:Daily,
    weekAllOn,               !- Name
    hourlyAllOn,             !- Sunday Schedule:Day Name
    hourlyAllOn,             !- Monday Schedule:Day Name
    hourlyAllOn,             !- Tuesday Schedule:Day Name
    hourlyAllOn,             !- Wednesday Schedule:Day Name
    hourlyAllOn,             !- Thursday Schedule:Day Name
    hourlyAllOn,             !- Friday Schedule:Day Name
    hourlyAllOn,             !- Saturday Schedule:Day Name
    hourlyAllOn,             !- Holiday Schedule:Day Name
    hourlyAllOn,             !- SummerDesignDay Schedule:Day Name
    hourlyAllOn,             !- WinterDesignDay Schedule:Day Name
    hourlyAllOn,             !- CustomDay1 Schedule:Day Name
    hourlyAllOn;             !- CustomDay2 Schedule:Day Name

  Schedule:Day:Hourly,
    ventOffice,               !- Name
    Fraction,                !- Schedule Type Limits Name
    0,                       !- Hour 1
    0,                       !- Hour 2
    0,                       !- Hour 3
    0,                       !- Hour 4
    0,                       !- Hour 5
    0,                       !- Hour 6
    0,                       !- Hour 7
    0.16,                     !- Hour 8
    0.32,                     !- Hour 9
    0.48,                     !- Hour 10
    0.64,                     !- Hour 11
    0.64,                     !- Hour 12
    0.32,                     !- Hour 13
    0.48,                     !- Hour 14
    0.64,                     !- Hour 15
    0.64,                     !- Hour 16
    0.32,                     !- Hour 17
    0.16,                     !- Hour 18
    0,                       !- Hour 19
    0,                       !- Hour 20
    0,                       !- Hour 21
    0,                       !- Hour 22
    0,                       !- Hour 23
    0;                       !- Hour 24

  Schedule:Day:Hourly,
    ventOfficeWeekEnd,               !- Name
    Fraction,                !- Schedule Type Limits Name
    0,                       !- Hour 1
    0,                       !- Hour 2
    0,                       !- Hour 3
    0,                       !- Hour 4
    0,                       !- Hour 5
    0,                       !- Hour 6
    0,                       !- Hour 7
    0,                     !- Hour 8
    0,                     !- Hour 9
    0,                     !- Hour 10
    0,                     !- Hour 11
    0,                     !- Hour 12
    0,                     !- Hour 13
    0,                     !- Hour 14
    0,                     !- Hour 15
    0,                     !- Hour 16
    0,                     !- Hour 17
    0,                     !- Hour 18
    0,                       !- Hour 19
    0,                       !- Hour 20
    0,                       !- Hour 21
    0,                       !- Hour 22
    0,                       !- Hour 23
    0;                       !- Hour 24

	
  Schedule:Day:Hourly,
    htgOffice,               !- Name
    Any Number,                !- Schedule Type Limits Name
    18,                       !- Hour 1
    18,                       !- Hour 2
    18,                       !- Hour 3
    18,                       !- Hour 4
    18,                       !- Hour 5
    18,                       !- Hour 6
    18,                       !- Hour 7
    21,                     !- Hour 8
    21,                     !- Hour 9
    21,                     !- Hour 10
    21,                     !- Hour 11
    21,                     !- Hour 12
    21,                     !- Hour 13
    21,                     !- Hour 14
    21,                     !- Hour 15
    21,                     !- Hour 16
    21,                     !- Hour 17
    21,                     !- Hour 18
    18,                       !- Hour 19
    18,                       !- Hour 20
    18,                       !- Hour 21
    18,                       !- Hour 22
    18,                       !- Hour 23
    18;                       !- Hour 24

  Schedule:Day:Hourly,
    htgOfficeWeekEnd,        !- Name
    Any Number,                !- Schedule Type Limits Name
    18,                       !- Hour 1
    18,                       !- Hour 2
    18,                       !- Hour 3
    18,                       !- Hour 4
    18,                       !- Hour 5
    18,                       !- Hour 6
    18,                       !- Hour 7
    18,                     !- Hour 8
    18,                     !- Hour 9
    18,                     !- Hour 10
    18,                     !- Hour 11
    18,                     !- Hour 12
    18,                     !- Hour 13
    18,                     !- Hour 14
    18,                     !- Hour 15
    18,                     !- Hour 16
    18,                     !- Hour 17
    18,                     !- Hour 18
    18,                       !- Hour 19
    18,                       !- Hour 20
    18,                       !- Hour 21
    18,                       !- Hour 22
    18,                       !- Hour 23
    18;                       !- Hour 24

  Schedule:Day:Hourly,
    clgOffice,               !- Name
    Any Number,                !- Schedule Type Limits Name
    29,                       !- Hour 1
    29,                       !- Hour 2
    29,                       !- Hour 3
    29,                       !- Hour 4
    29,                       !- Hour 5
    29,                       !- Hour 6
    29,                       !- Hour 7
    26,                     !- Hour 8
    26,                     !- Hour 9
    26,                     !- Hour 10
    26,                     !- Hour 11
    26,                     !- Hour 12
    26,                     !- Hour 13
    26,                     !- Hour 14
    26,                     !- Hour 15
    26,                     !- Hour 16
    26,                     !- Hour 17
    26,                     !- Hour 18
    29,                       !- Hour 19
    29,                       !- Hour 20
    29,                       !- Hour 21
    29,                       !- Hour 22
    29,                       !- Hour 23
    29;                       !- Hour 24

  Schedule:Day:Hourly,
    clgOfficeWeekEnd,        !- Name
    Any Number,                !- Schedule Type Limits Name
    29,                       !- Hour 1
    29,                       !- Hour 2
    29,                       !- Hour 3
    29,                       !- Hour 4
    29,                       !- Hour 5
    29,                       !- Hour 6
    29,                       !- Hour 7
    29,                     !- Hour 8
    29,                     !- Hour 9
    29,                     !- Hour 10
    29,                     !- Hour 11
    29,                     !- Hour 12
    29,                     !- Hour 13
    29,                     !- Hour 14
    29,                     !- Hour 15
    29,                     !- Hour 16
    29,                     !- Hour 17
    29,                     !- Hour 18
    29,                       !- Hour 19
    29,                       !- Hour 20
    29,                       !- Hour 21
    29,                       !- Hour 22
    29,                       !- Hour 23
    29;                       !- Hour 24
	
  Schedule:Day:Hourly,
    occOffice,               !- Name
    Fraction,                !- Schedule Type Limits Name
    0,                       !- Hour 1